/*--------------------------------*- C++ -*----------------------------------*\
| =========                 |                                                 |
| \\      /  F ield         | OpenFOAM: The Open Source CFD Toolbox           |
|  \\    /   O peration     | Version:  dev                                   |
|   \\  /    A nd           | Web:      www.OpenFOAM.org                      |
|    \\/     M anipulation  |                                                 |
\*---------------------------------------------------------------------------*/
FoamFile
{
    version     2.0;
    format      ascii;
    class       dictinary;
    object      k;
}
// * * * * * * * * * * * * * * * * * * * * * * * * * * * * * * * * * * * * * //

"(topAir|bottomWater)"
{
    FoamFile
    {
        version     2.0;
        format      ascii;
        class       volScalarField;
        object      k;
    }

    dimensions      [0 2 -2 0 0 0 0];

    internalField   uniform 0.1;

    boundaryField
    {
        ".*"
        {
            type            kqRWallFunction;
            value           $internalField;
        }

        minX
        {
            type            fixedValue;
            value           $internalField;
        }
        maxX
        {
            type            inletOutlet;
            inletValue      $internalField;
            value           $internalField;
        }
    }
}

// ************************************************************************* //
