/*--------------------------------*- C++ -*----------------------------------*\
| =========                 |                                                 |
| \\      /  F ield         | OpenFOAM: The Open Source CFD Toolbox           |
|  \\    /   O peration     | Version:  dev                                   |
|   \\  /    A nd           | Web:      www.OpenFOAM.org                      |
|    \\/     M anipulation  |                                                 |
\*---------------------------------------------------------------------------*/
FoamFile
{
    version     2.0;
    format      ascii;
    class       dictionary;
    object      U;
}
// * * * * * * * * * * * * * * * * * * * * * * * * * * * * * * * * * * * * * //

topAir
{
    dimensions      [0 1 -1 0 0 0 0];

    internalField   uniform (0.1 0 0);

    boundaryField
    {
        ".*"
        {
            type            fixedValue;
            value           uniform (0 0 0);
        }
        minX
        {
            type            fixedValue;
            value           uniform (0.1 0 0);
        }
        maxX
        {
            type            inletOutlet;
            inletValue      uniform (0 0 0);
            value           uniform (0.1 0 0);
        }
    }
}

bottomWater
{
    dimensions      [0 1 -1 0 0 0 0];

    internalField   uniform (0.001 0 0);

    boundaryField
    {
        minX
        {
            type            fixedValue;
            value           uniform (0.001 0 0);
        }

        maxX
        {
            type            inletOutlet;
            inletValue      uniform (0 0 0);
        }

        ".*"
        {
            type            fixedValue;
            value           uniform (0 0 0);
        }
    }
}

// ************************************************************************* //
